Version 4
SHEET 1 3296 728
WIRE 1552 -1024 1328 -1024
WIRE 1824 -1024 1616 -1024
WIRE 1712 -944 1584 -944
WIRE 1824 -944 1824 -1024
WIRE 1824 -944 1792 -944
WIRE 1184 -864 1104 -864
WIRE 1328 -864 1328 -1024
WIRE 1328 -864 1264 -864
WIRE 1424 -864 1328 -864
WIRE 1584 -864 1584 -944
WIRE 1584 -864 1488 -864
WIRE 1632 -864 1584 -864
WIRE 1824 -848 1824 -944
WIRE 1824 -848 1696 -848
WIRE 1888 -848 1824 -848
WIRE 1632 -832 1584 -832
WIRE 1104 -816 1104 -864
WIRE 1328 -816 1328 -864
WIRE 1328 -688 1328 -736
WIRE 1584 -688 1584 -832
WIRE 2032 -624 1808 -624
WIRE 2304 -624 2096 -624
WIRE 656 -608 432 -608
WIRE 928 -608 720 -608
WIRE 2192 -544 2064 -544
WIRE 2304 -544 2304 -624
WIRE 2304 -544 2272 -544
WIRE 816 -528 688 -528
WIRE 928 -528 928 -608
WIRE 928 -528 896 -528
WIRE 1664 -464 1584 -464
WIRE 1808 -464 1808 -624
WIRE 1808 -464 1744 -464
WIRE 1904 -464 1808 -464
WIRE 2064 -464 2064 -544
WIRE 2064 -464 1968 -464
WIRE 2112 -464 2064 -464
WIRE 288 -448 208 -448
WIRE 432 -448 432 -608
WIRE 432 -448 368 -448
WIRE 528 -448 432 -448
WIRE 688 -448 688 -528
WIRE 688 -448 592 -448
WIRE 736 -448 688 -448
WIRE 2304 -448 2304 -544
WIRE 2304 -448 2176 -448
WIRE 2368 -448 2304 -448
WIRE 928 -432 928 -528
WIRE 928 -432 800 -432
WIRE 992 -432 928 -432
WIRE 2112 -432 2064 -432
WIRE 736 -416 688 -416
WIRE 1584 -416 1584 -464
WIRE 1808 -416 1808 -464
WIRE 208 -400 208 -448
WIRE 432 -400 432 -448
WIRE 1808 -288 1808 -336
WIRE 2064 -288 2064 -432
WIRE 432 -272 432 -320
WIRE 688 -272 688 -416
WIRE 2032 -192 1808 -192
WIRE 2304 -192 2096 -192
WIRE 656 -176 432 -176
WIRE 928 -176 720 -176
WIRE 2192 -112 2064 -112
WIRE 2304 -112 2304 -192
WIRE 2304 -112 2272 -112
WIRE 816 -96 688 -96
WIRE 928 -96 928 -176
WIRE 928 -96 896 -96
WIRE 1664 -32 1584 -32
WIRE 1808 -32 1808 -192
WIRE 1808 -32 1744 -32
WIRE 1904 -32 1808 -32
WIRE 2064 -32 2064 -112
WIRE 2064 -32 1968 -32
WIRE 2112 -32 2064 -32
WIRE 288 -16 208 -16
WIRE 432 -16 432 -176
WIRE 432 -16 368 -16
WIRE 528 -16 432 -16
WIRE 688 -16 688 -96
WIRE 688 -16 592 -16
WIRE 736 -16 688 -16
WIRE 2304 -16 2304 -112
WIRE 2304 -16 2176 -16
WIRE 2368 -16 2304 -16
WIRE 928 0 928 -96
WIRE 928 0 800 0
WIRE 992 0 928 0
WIRE 2112 0 2064 0
WIRE 736 16 688 16
WIRE 1584 16 1584 -32
WIRE 1808 16 1808 -32
WIRE 208 32 208 -16
WIRE 432 32 432 -16
WIRE 1808 144 1808 96
WIRE 2064 144 2064 0
WIRE 432 160 432 112
WIRE 688 160 688 16
WIRE 256 240 256 208
WIRE 384 240 384 208
WIRE 528 240 528 208
WIRE 256 352 256 320
WIRE 384 352 384 320
WIRE 528 352 528 320
FLAG 992 0 Vout_4556
FLAG 256 352 0
FLAG 384 208 Vcc
FLAG 528 208 Vee
FLAG 528 352 0
FLAG 384 352 0
FLAG 768 -32 Vcc
FLAG 768 32 Vee
FLAG 992 -432 Vout_4580
FLAG 688 -272 0
FLAG 768 -464 Vcc
FLAG 768 -400 Vee
FLAG 2368 -16 Vout_833
FLAG 2144 -48 Vcc
FLAG 2144 16 Vee
FLAG 256 208 Vin
FLAG 208 -400 Vin
FLAG 2368 -448 Vout_4562
FLAG 2144 -480 Vcc
FLAG 2144 -416 Vee
FLAG 432 -272 0
FLAG 208 32 Vin
FLAG 432 160 0
FLAG 688 160 0
FLAG 2064 144 0
FLAG 1584 16 Vin
FLAG 1808 144 0
FLAG 2064 -288 0
FLAG 1584 -416 Vin
FLAG 1808 -288 0
FLAG 1888 -848 Vout
FLAG 1584 -688 0
FLAG 1664 -880 Vcc
FLAG 1664 -816 Vee
FLAG 1104 -816 Vin
FLAG 1328 -688 0
SYMBOL voltage 256 224 R0
WINDOW 123 24 103 Left 2
WINDOW 39 0 0 Left 0
SYMATTR Value2 AC 1
SYMATTR InstName Vin
SYMATTR Value ""
SYMBOL cap 656 -160 R270
WINDOW 0 32 32 VTop 2
WINDOW 3 0 32 VBottom 2
SYMATTR InstName C2
SYMATTR Value =C2set
SYMBOL ZZZ\\OpAmp\\njm4556 768 -64 R0
WINDOW 3 22 85 Left 2
SYMATTR InstName U1
SYMBOL voltage 384 224 R0
WINDOW 123 0 0 Left 0
WINDOW 39 0 0 Left 0
SYMATTR InstName V2
SYMATTR Value 18
SYMBOL voltage 528 336 R180
WINDOW 123 0 0 Left 0
WINDOW 39 0 0 Left 0
SYMATTR InstName V1
SYMATTR Value 18
SYMBOL ZZZ\\OpAmp\\NJM4580 768 -432 R0
WINDOW 3 19 21 Left 2
WINDOW 0 24 -28 Left 2
SYMATTR InstName U2
SYMBOL res 384 -464 R90
WINDOW 0 0 56 VBottom 2
WINDOW 3 32 56 VTop 2
SYMATTR InstName R3
SYMATTR Value R=cF_Rset
SYMBOL cap 656 -592 R270
WINDOW 0 32 32 VTop 2
WINDOW 3 0 32 VBottom 2
SYMATTR InstName C4
SYMATTR Value =C2set
SYMBOL cap 2032 -176 R270
WINDOW 0 32 32 VTop 2
WINDOW 3 0 32 VBottom 2
SYMATTR InstName C6
SYMATTR Value =C2set
SYMBOL ZZZ\\Robertugo\\opamp5 2144 -80 R0
WINDOW 0 25 32 Left 2
WINDOW 38 24 89 Left 2
SYMATTR InstName U3
SYMATTR SpiceModel LM833
SYMBOL cap 2032 -608 R270
WINDOW 0 32 32 VTop 2
WINDOW 3 0 32 VBottom 2
SYMATTR InstName C8
SYMATTR Value =C2set
SYMBOL OpAmps\\LM4562 2144 -448 R0
SYMATTR InstName U4
SYMBOL res 416 -416 R0
SYMATTR InstName R4
SYMATTR Value R=R1set
SYMBOL res 912 -544 R90
WINDOW 0 0 56 VBottom 2
WINDOW 3 32 56 VTop 2
SYMATTR InstName R9
SYMATTR Value R=R2set
SYMBOL cap 592 -464 R90
WINDOW 0 0 32 VBottom 2
WINDOW 3 32 32 VTop 2
SYMATTR InstName C3
SYMATTR Value =C1set
SYMBOL res 384 -32 R90
WINDOW 0 0 56 VBottom 2
WINDOW 3 32 56 VTop 2
SYMATTR InstName R1
SYMATTR Value R=cF_Rset
SYMBOL res 416 16 R0
SYMATTR InstName R2
SYMATTR Value R=R1set
SYMBOL cap 592 -32 R90
WINDOW 0 0 32 VBottom 2
WINDOW 3 32 32 VTop 2
SYMATTR InstName C9
SYMATTR Value =C1set
SYMBOL res 912 -112 R90
WINDOW 0 0 56 VBottom 2
WINDOW 3 32 56 VTop 2
SYMATTR InstName R10
SYMATTR Value R=R2set
SYMBOL res 1760 -48 R90
WINDOW 0 0 56 VBottom 2
WINDOW 3 32 56 VTop 2
SYMATTR InstName R5
SYMATTR Value R=cF_Rset
SYMBOL res 1792 0 R0
SYMATTR InstName R6
SYMATTR Value R=R1set
SYMBOL cap 1968 -48 R90
WINDOW 0 0 32 VBottom 2
WINDOW 3 32 32 VTop 2
SYMATTR InstName C1
SYMATTR Value =C1set
SYMBOL res 2288 -128 R90
WINDOW 0 0 56 VBottom 2
WINDOW 3 32 56 VTop 2
SYMATTR InstName R11
SYMATTR Value R=R2set
SYMBOL res 1760 -480 R90
WINDOW 0 0 56 VBottom 2
WINDOW 3 32 56 VTop 2
SYMATTR InstName R7
SYMATTR Value R=cF_Rset
SYMBOL res 1792 -432 R0
SYMATTR InstName R8
SYMATTR Value R=R1set
SYMBOL cap 1968 -480 R90
WINDOW 0 0 32 VBottom 2
WINDOW 3 32 32 VTop 2
SYMATTR InstName C5
SYMATTR Value =C1set
SYMBOL res 2288 -560 R90
WINDOW 0 0 56 VBottom 2
WINDOW 3 32 56 VTop 2
SYMATTR InstName R12
SYMATTR Value R=R2set
SYMBOL res 1280 -880 R90
WINDOW 0 0 56 VBottom 2
WINDOW 3 32 56 VTop 2
SYMATTR InstName R1A
SYMATTR Value 31830.98861
SYMBOL cap 1552 -1008 R270
WINDOW 0 32 32 VTop 2
WINDOW 3 0 32 VBottom 2
SYMATTR InstName C7
SYMATTR Value 0.1µ
SYMBOL res 1312 -832 R0
SYMATTR InstName R1B
SYMATTR Value 321.5251375
SYMBOL res 1808 -960 R90
WINDOW 0 0 56 VBottom 2
WINDOW 3 32 56 VTop 2
SYMATTR InstName R2A
SYMATTR Value 3.183098861Meg
SYMBOL cap 1488 -880 R90
WINDOW 0 0 32 VBottom 2
WINDOW 3 32 32 VTop 2
SYMATTR InstName C10
SYMATTR Value 0.1µ
SYMBOL OpAmps\\LM4562 1664 -848 R0
SYMATTR InstName U5
TEXT 760 152 Left 2 !.ac dec 5000 0.1 10000000
TEXT 760 184 Left 1 !.meas Vout_max_4580 max(mag(V(Vout_4580)))\n.meas AC Vout_cnrF1_4580  FROM 0 TARG mag(V(Vout_4580))=Vout_max_4580/sqrt(2) RISE=1\n.meas AC Vout_cnrF2_4580  FROM 0 TARG mag(V(Vout_4580))=Vout_max_4580/sqrt(2) FALL=1\n.meas AC Vout_bw_4580 TRIG mag(V(Vout_4580))=Vout_max_4580/sqrt(2) RISE=1\n+                              TARG mag(V(Vout_4580))=Vout_max_4580/sqrt(2) FALL=LAST\n.options meascplxfmt=CARTESIAN\n.meas AC Vout_ctrF_4580 WHEN mag(V(Vout_4580))=Vout_max_4580\n.meas AC Vout_ctrFb_4580  FROM 0 TARG mag(V(Vout_4580))=Vout_max_4580\n.meas Q_4580 param Vout_ctrFb_4580/Vout_bw_4580\n.meas dB_4580 param 20*log10(Vout_max_4580)\n \n.meas Vout_max_4556 max(mag(V(Vout_4556)))\n.meas AC Vout_cnrF1_4556  FROM 0 TARG mag(V(Vout_4556))=Vout_max_4556/sqrt(2) RISE=1\n.meas AC Vout_cnrF2_4556  FROM 0 TARG mag(V(Vout_4556))=Vout_max_4556/sqrt(2) FALL=1\n.meas AC Vout_bw_4556 TRIG mag(V(Vout_4556))=Vout_max_4556/sqrt(2) RISE=1\n+                              TARG mag(V(Vout_4556))=Vout_max_4556/sqrt(2) FALL=LAST\n.options meascplxfmt=CARTESIAN\n.meas AC Vout_ctrF_4556 WHEN mag(V(Vout_4556))=Vout_max_4556\n.meas AC Vout_ctrFb_4556  FROM 0 TARG mag(V(Vout_4556))=Vout_max_4556\n.meas Q_4556 param Vout_ctrFb_4556/Vout_bw_4556\n.meas dB_4556 param 20*log10(Vout_max_4556)
TEXT 976 -176 Left 1 ;R1=R2=1Meg\nvout_max: 19.7885\nvout_cnrf1: 154.7\nvout_cnrf2: 162.732\nvout_bw: 8.03165\nvout_ctrf: 158.782\nvout_ctrfb: 158.782\nvout_q: 19.77
TEXT 1504 -176 Left 1 ;R1=R2=6.8k\nvout_max: 49.7801\nvout_cnrf1: 19729.7\nvout_cnrf2: 20130\nvout_bw: 400.24\nvout_ctrf: 19934.3\nvout_ctrfb: 19934.3\nvout_q: 49.806
TEXT 1152 -176 Left 1 ;R1=R2=100k\nvout_max: 37.7198\nvout_cnrf1: 1549.17\nvout_cnrf2: 1590.81\nvout_bw: 41.645\nvout_ctrf: 1570.36\nvout_ctrfb: 1570.36\nvout_q: 37.708
TEXT 1328 -176 Left 1 ;R1=R2=10k\nvout_max: 46.577\nvout_cnrf1: 14036.2\nvout_cnrf2: 14340.9\nvout_bw: 304.623\nvout_ctrf: 14190.6\nvout_ctrfb: 14190.6\nvout_q: 46.584
TEXT 1144 40 Left 2 !.param cF_Rset=31830.98861\n.param R1set=321.5251375\n.param R2set=3.183098861Meg\n.param C1set=0.1u\n.param C2set=0.1u
TEXT 976 -608 Left 1 ;R1=R2=1Meg\nvout_max: 14.8482\nvout_cnrf1: 153.378\nvout_cnrf2: 164.095\nvout_bw: 10.7173\nvout_ctrf: 158.855\nvout_ctrfb: 158.855\nvout_q: 14.822
TEXT 1504 -608 Left 1 ;R1=R2=6.8k\nvout_max: 51.0138\nvout_cnrf1: 21569\nvout_cnrf2: 21995.8\nvout_bw: 426.795\nvout_ctrf: 21787.1\nvout_ctrfb: 21787.1\nvout_q: 51.048
TEXT 1152 -608 Left 1 ;R1=R2=100k\nvout_max: 39.702\nvout_cnrf1: 1561.81\nvout_cnrf2: 1601.66\nvout_bw: 39.8572\nvout_ctrf: 1581.98\nvout_ctrfb: 1581.98\nvout_q: 39.691
TEXT 1328 -608 Left 1 ;R1=R2=10k\nvout_max: 49.6634\nvout_cnrf1: 14984.5\nvout_cnrf2: 15289.3\nvout_bw: 304.779\nvout_ctrf: 15135.6\nvout_ctrfb: 15135.6\nvout_q: 49.661
TEXT 2344 -192 Left 1 ;R1=R2=1Meg\nvout_max: 47.5887\nvout_cnrf1: 157.358\nvout_cnrf2: 160.702\nvout_bw: 3.34386\nvout_ctrf: 159.074\nvout_ctrfb: 159.074\nvout_q: 47.572
TEXT 2872 -192 Left 1 ;R1=R2=6.8k\nvout_max: 51.9658\nvout_cnrf1: 21305\nvout_cnrf2: 21719.1\nvout_bw: 414.146\nvout_ctrf: 21517.9\nvout_ctrfb: 21517.9\nvout_q: 51.957
TEXT 2520 -192 Left 1 ;R1=R2=100k\nvout_max: 48.0565\nvout_cnrf1: 1565.01\nvout_cnrf2: 1597.94\nvout_bw: 32.9281\nvout_ctrf: 1581.25\nvout_ctrfb: 1581.25\nvout_q: 48.021
TEXT 2696 -192 Left 1 ;R1=R2=10k\nvout_max: 50.67\nvout_cnrf1: 14857.2\nvout_cnrf2: 151.53.4\nvout_bw: 296.262\nvout_ctrf: 15003.8\nvout_ctrfb: 15003.8\nvout_q: 50.644
TEXT 2344 -624 Left 1 ;R1=R2=1Meg\nvout_max: 49.3083\nvout_cnrf1: 156.689\nvout_cnrf2: 159.901\nvout_bw: 3.21226\nvout_ctrf: 158.271\nvout_ctrfb: 158.271\nvout_q: 49.271
TEXT 2872 -624 Left 1 ;R1=R2=6.8k\nvout_max: 50.798\nvout_cnrf1: 22589.3\nvout_cnrf2: 23038.5\nvout_bw: 449.267\nvout_ctrf: 22813.9\nvout_ctrfb: 22813.9\nvout_q: 50.780
TEXT 2520 -624 Left 1 ;R1=R2=100k\nvout_max: 49.817\nvout_cnrf1: 1565.08\nvout_cnrf2: 1596.83\nvout_bw: 31.7513\nvout_ctrf: 1581.25\nvout_ctrfb: 1581.25\nvout_q: 49.801
TEXT 2696 -624 Left 1 ;R1=R2=10k\nvout_max: 50.4756\nvout_cnrf1: 15458.6\nvout_cnrf2: 15768.1\nvout_bw: 309.48\nvout_ctrf: 15617.1\nvout_ctrfb: 15617.1\nvout_q: 50.462
TEXT 1560 200 Left 1 !.meas Vout_max_4562 max(mag(V(Vout_4562)))\n.meas AC Vout_cnrF1_4562  FROM 0 TARG mag(V(Vout_4562))=Vout_max_4562/sqrt(2) RISE=1\n.meas AC Vout_cnrF2_4562  FROM 0 TARG mag(V(Vout_4562))=Vout_max_4562/sqrt(2) FALL=1\n.meas AC Vout_bw_4562 TRIG mag(V(Vout_4562))=Vout_max_4562/sqrt(2) RISE=1\n+                              TARG mag(V(Vout_4562))=Vout_max_4562/sqrt(2) FALL=LAST\n.options meascplxfmt=CARTESIAN\n.meas AC Vout_ctrF_4562 WHEN mag(V(Vout_4562))=Vout_max_4562\n.meas AC Vout_ctrFb_4562  FROM 0 TARG mag(V(Vout_4562))=Vout_max_4562\n.meas Q_4562 param Vout_ctrFb_4562/Vout_bw_4562\n.meas dB_4562 param 20*log10(Vout_max_4562)\n \n.meas Vout_max_833 max(mag(V(Vout_833)))\n.meas AC Vout_cnrF1_833  FROM 0 TARG mag(V(Vout_833))=Vout_max_833/sqrt(2) RISE=1\n.meas AC Vout_cnrF2_833  FROM 0 TARG mag(V(Vout_833))=Vout_max_833/sqrt(2) FALL=1\n.meas AC Vout_bw_833 TRIG mag(V(Vout_833))=Vout_max_833/sqrt(2) RISE=1\n+                              TARG mag(V(Vout_833))=Vout_max_833/sqrt(2) FALL=LAST\n.options meascplxfmt=CARTESIAN\n.meas AC Vout_ctrF_833 WHEN mag(V(Vout_833))=Vout_max_833\n.meas AC Vout_ctrFb_833  FROM 0 TARG mag(V(Vout_833))=Vout_max_833\n.meas Q_833 param Vout_ctrFb_833/Vout_bw_833\n.meas dB_833 param 20*log10(Vout_max_833)
