Version 4
SHEET 1 3296 800
WIRE 2032 -1056 1808 -1056
WIRE 2304 -1056 2096 -1056
WIRE 656 -1040 432 -1040
WIRE 928 -1040 720 -1040
WIRE 2240 -976 2064 -976
WIRE 864 -960 688 -960
WIRE 2064 -896 2064 -976
WIRE 2112 -896 2064 -896
WIRE 688 -880 688 -960
WIRE 736 -880 688 -880
WIRE 2240 -880 2240 -976
WIRE 2240 -880 2176 -880
WIRE 2304 -880 2304 -1056
WIRE 2304 -880 2240 -880
WIRE 2368 -880 2304 -880
WIRE 864 -864 864 -960
WIRE 864 -864 800 -864
WIRE 928 -864 928 -1040
WIRE 928 -864 864 -864
WIRE 992 -864 928 -864
WIRE 1664 -864 1584 -864
WIRE 1808 -864 1808 -1056
WIRE 1808 -864 1744 -864
WIRE 1888 -864 1808 -864
WIRE 2064 -864 1968 -864
WIRE 2112 -864 2064 -864
WIRE 288 -848 208 -848
WIRE 432 -848 432 -1040
WIRE 432 -848 368 -848
WIRE 512 -848 432 -848
WIRE 688 -848 592 -848
WIRE 736 -848 688 -848
WIRE 1584 -816 1584 -864
WIRE 2064 -816 2064 -864
WIRE 208 -800 208 -848
WIRE 688 -800 688 -848
WIRE 2064 -704 2064 -752
WIRE 688 -688 688 -736
WIRE 2032 -624 1808 -624
WIRE 2304 -624 2096 -624
WIRE 656 -608 432 -608
WIRE 928 -608 720 -608
WIRE 2240 -544 2064 -544
WIRE 864 -528 688 -528
WIRE 2064 -464 2064 -544
WIRE 2112 -464 2064 -464
WIRE 688 -448 688 -528
WIRE 736 -448 688 -448
WIRE 2240 -448 2240 -544
WIRE 2240 -448 2176 -448
WIRE 2304 -448 2304 -624
WIRE 2304 -448 2240 -448
WIRE 2368 -448 2304 -448
WIRE 864 -432 864 -528
WIRE 864 -432 800 -432
WIRE 928 -432 928 -608
WIRE 928 -432 864 -432
WIRE 992 -432 928 -432
WIRE 1664 -432 1584 -432
WIRE 1808 -432 1808 -624
WIRE 1808 -432 1744 -432
WIRE 1888 -432 1808 -432
WIRE 2064 -432 1968 -432
WIRE 2112 -432 2064 -432
WIRE 288 -416 208 -416
WIRE 432 -416 432 -608
WIRE 432 -416 368 -416
WIRE 512 -416 432 -416
WIRE 688 -416 592 -416
WIRE 736 -416 688 -416
WIRE 1584 -384 1584 -432
WIRE 2064 -384 2064 -432
WIRE 208 -368 208 -416
WIRE 688 -368 688 -416
WIRE 2064 -272 2064 -320
WIRE 688 -256 688 -304
WIRE 2032 -192 1808 -192
WIRE 2304 -192 2096 -192
WIRE 656 -176 432 -176
WIRE 928 -176 720 -176
WIRE 2240 -112 2064 -112
WIRE 864 -96 688 -96
WIRE 2064 -32 2064 -112
WIRE 2112 -32 2064 -32
WIRE 688 -16 688 -96
WIRE 736 -16 688 -16
WIRE 2240 -16 2240 -112
WIRE 2240 -16 2176 -16
WIRE 2304 -16 2304 -192
WIRE 2304 -16 2240 -16
WIRE 2368 -16 2304 -16
WIRE 864 0 864 -96
WIRE 864 0 800 0
WIRE 928 0 928 -176
WIRE 928 0 864 0
WIRE 992 0 928 0
WIRE 1664 0 1584 0
WIRE 1808 0 1808 -192
WIRE 1808 0 1744 0
WIRE 1888 0 1808 0
WIRE 2064 0 1968 0
WIRE 2112 0 2064 0
WIRE 288 16 208 16
WIRE 432 16 432 -176
WIRE 432 16 368 16
WIRE 512 16 432 16
WIRE 688 16 592 16
WIRE 736 16 688 16
WIRE 1584 48 1584 0
WIRE 2064 48 2064 0
WIRE 208 64 208 16
WIRE 688 64 688 16
WIRE 2064 160 2064 112
WIRE 688 176 688 128
WIRE 256 240 256 208
WIRE 384 240 384 208
WIRE 528 240 528 208
WIRE 256 352 256 320
WIRE 384 352 384 320
WIRE 528 352 528 320
FLAG 992 0 Vout_4556
FLAG 688 176 0
FLAG 256 352 0
FLAG 384 208 Vcc
FLAG 528 208 Vee
FLAG 528 352 0
FLAG 384 352 0
FLAG 768 -32 Vcc
FLAG 768 32 Vee
FLAG 992 -432 Vout_4580
FLAG 688 -256 0
FLAG 768 -464 Vcc
FLAG 768 -400 Vee
FLAG 2368 -16 Vout_833
FLAG 2064 160 0
FLAG 2144 -48 Vcc
FLAG 2144 16 Vee
FLAG 256 208 Vin
FLAG 208 64 Vin
FLAG 208 -368 Vin
FLAG 1584 48 Vin
FLAG 2368 -448 Vout_4562
FLAG 2064 -272 0
FLAG 2144 -480 Vcc
FLAG 2144 -416 Vee
FLAG 1584 -384 Vin
FLAG 992 -864 Vout_2132
FLAG 688 -688 0
FLAG 768 -896 Vcc
FLAG 768 -832 Vee
FLAG 208 -800 Vin
FLAG 2368 -880 Vout_2277
FLAG 2064 -704 0
FLAG 2144 -912 Vcc
FLAG 2144 -848 Vee
FLAG 1584 -816 Vin
SYMBOL voltage 256 224 R0
WINDOW 123 24 103 Left 2
WINDOW 39 0 0 Left 0
SYMATTR Value2 AC 1
SYMATTR InstName Vin
SYMATTR Value ""
SYMBOL res 384 0 R90
WINDOW 0 0 56 VBottom 2
WINDOW 3 32 56 VTop 2
SYMATTR InstName R1
SYMATTR Value R=Rset
SYMBOL res 608 0 R90
WINDOW 0 0 56 VBottom 2
WINDOW 3 32 56 VTop 2
SYMATTR InstName R2
SYMATTR Value R=Rset
SYMBOL cap 704 128 R180
WINDOW 0 24 56 Left 2
WINDOW 3 24 8 Left 2
SYMATTR InstName C1
SYMATTR Value 10p
SYMBOL cap 656 -160 R270
WINDOW 0 32 32 VTop 2
WINDOW 3 0 32 VBottom 2
SYMATTR InstName C2
SYMATTR Value 0.1µ
SYMBOL ZZZ\\OpAmp\\njm4556 768 -64 R0
WINDOW 3 22 85 Left 2
SYMATTR InstName U1
SYMBOL voltage 384 224 R0
WINDOW 123 0 0 Left 0
WINDOW 39 0 0 Left 0
SYMATTR InstName V2
SYMATTR Value 18
SYMBOL voltage 528 336 R180
WINDOW 123 0 0 Left 0
WINDOW 39 0 0 Left 0
SYMATTR InstName V1
SYMATTR Value 18
SYMBOL ZZZ\\OpAmp\\NJM4580 768 -432 R0
WINDOW 3 19 21 Left 2
WINDOW 0 24 -28 Left 2
SYMATTR InstName U2
SYMBOL res 384 -432 R90
WINDOW 0 0 56 VBottom 2
WINDOW 3 32 56 VTop 2
SYMATTR InstName R3
SYMATTR Value R=Rset
SYMBOL res 608 -432 R90
WINDOW 0 0 56 VBottom 2
WINDOW 3 32 56 VTop 2
SYMATTR InstName R4
SYMATTR Value R=Rset
SYMBOL cap 704 -304 R180
WINDOW 0 24 56 Left 2
WINDOW 3 24 8 Left 2
SYMATTR InstName C3
SYMATTR Value 10p
SYMBOL cap 656 -592 R270
WINDOW 0 32 32 VTop 2
WINDOW 3 0 32 VBottom 2
SYMATTR InstName C4
SYMATTR Value 0.1µ
SYMBOL res 1760 -16 R90
WINDOW 0 0 56 VBottom 2
WINDOW 3 32 56 VTop 2
SYMATTR InstName R5
SYMATTR Value R=Rset
SYMBOL res 1984 -16 R90
WINDOW 0 0 56 VBottom 2
WINDOW 3 32 56 VTop 2
SYMATTR InstName R6
SYMATTR Value R=Rset
SYMBOL cap 2080 112 R180
WINDOW 0 24 56 Left 2
WINDOW 3 24 8 Left 2
SYMATTR InstName C5
SYMATTR Value 10p
SYMBOL cap 2032 -176 R270
WINDOW 0 32 32 VTop 2
WINDOW 3 0 32 VBottom 2
SYMATTR InstName C6
SYMATTR Value 0.1µ
SYMBOL ZZZ\\Robertugo\\opamp5 2144 -80 R0
WINDOW 0 25 32 Left 2
WINDOW 38 24 89 Left 2
SYMATTR InstName U3
SYMATTR SpiceModel LM833
SYMBOL res 1760 -448 R90
WINDOW 0 0 56 VBottom 2
WINDOW 3 32 56 VTop 2
SYMATTR InstName R7
SYMATTR Value R=Rset
SYMBOL res 1984 -448 R90
WINDOW 0 0 56 VBottom 2
WINDOW 3 32 56 VTop 2
SYMATTR InstName R8
SYMATTR Value R=Rset
SYMBOL cap 2080 -320 R180
WINDOW 0 24 56 Left 2
WINDOW 3 24 8 Left 2
SYMATTR InstName C7
SYMATTR Value 10p
SYMBOL cap 2032 -608 R270
WINDOW 0 32 32 VTop 2
WINDOW 3 0 32 VBottom 2
SYMATTR InstName C8
SYMATTR Value 0.1µ
SYMBOL OpAmps\\LM4562 2144 -448 R0
SYMATTR InstName U4
SYMBOL res 384 -864 R90
WINDOW 0 0 56 VBottom 2
WINDOW 3 32 56 VTop 2
SYMATTR InstName R9
SYMATTR Value R=Rset
SYMBOL res 608 -864 R90
WINDOW 0 0 56 VBottom 2
WINDOW 3 32 56 VTop 2
SYMATTR InstName R10
SYMATTR Value R=Rset
SYMBOL cap 704 -736 R180
WINDOW 0 24 56 Left 2
WINDOW 3 24 8 Left 2
SYMATTR InstName C9
SYMATTR Value 10p
SYMBOL cap 656 -1024 R270
WINDOW 0 32 32 VTop 2
WINDOW 3 0 32 VBottom 2
SYMATTR InstName C10
SYMATTR Value 0.1µ
SYMBOL res 1760 -880 R90
WINDOW 0 0 56 VBottom 2
WINDOW 3 32 56 VTop 2
SYMATTR InstName R11
SYMATTR Value R=Rset
SYMBOL res 1984 -880 R90
WINDOW 0 0 56 VBottom 2
WINDOW 3 32 56 VTop 2
SYMATTR InstName R12
SYMATTR Value R=Rset
SYMBOL cap 2080 -752 R180
WINDOW 0 24 56 Left 2
WINDOW 3 24 8 Left 2
SYMATTR InstName C11
SYMATTR Value 10p
SYMBOL cap 2032 -1040 R270
WINDOW 0 32 32 VTop 2
WINDOW 3 0 32 VBottom 2
SYMATTR InstName C12
SYMATTR Value 0.1µ
SYMBOL ZZZ\\OpAmp\\OPA227 2144 -944 R0
SYMATTR InstName U5
SYMBOL ZZZ\\OpAmp\\OpAmp_BB 768 -864 R0
WINDOW 38 0 0 Left 0
SYMATTR SpiceModel OPA4132
SYMATTR InstName U6
TEXT 760 152 Left 2 !.ac dec 5000 0.1 10000000
TEXT 760 184 Left 1 !.meas Vout_max_2132 max(mag(V(Vout_2132)))\n.meas AC Vout_cnrF1_2132  FROM 0 TARG mag(V(Vout_2132))=Vout_max_2132/sqrt(2) RISE=1\n.meas AC Vout_cnrF2_2132  FROM 0 TARG mag(V(Vout_2132))=Vout_max_2132/sqrt(2) FALL=1\n.meas AC Vout_bw_2132 TRIG mag(V(Vout_2132))=Vout_max_2132/sqrt(2) RISE=1\n+                              TARG mag(V(Vout_2132))=Vout_max_2132/sqrt(2) FALL=LAST\n.options meascplxfmt=CARTESIAN\n.meas AC Vout_ctrF_2132 WHEN mag(V(Vout_2132))=Vout_max_2132\n.meas AC Vout_ctrFb_2132  FROM 0 TARG mag(V(Vout_2132))=Vout_max_2132\n.meas Q_2132 param Vout_ctrFb_2132/Vout_bw_2132\n.meas dB_2132 param 20*log10(Vout_max_2132)\n \n.meas Vout_max_4580 max(mag(V(Vout_4580)))\n.meas AC Vout_cnrF1_4580  FROM 0 TARG mag(V(Vout_4580))=Vout_max_4580/sqrt(2) RISE=1\n.meas AC Vout_cnrF2_4580  FROM 0 TARG mag(V(Vout_4580))=Vout_max_4580/sqrt(2) FALL=1\n.meas AC Vout_bw_4580 TRIG mag(V(Vout_4580))=Vout_max_4580/sqrt(2) RISE=1\n+                              TARG mag(V(Vout_4580))=Vout_max_4580/sqrt(2) FALL=LAST\n.options meascplxfmt=CARTESIAN\n.meas AC Vout_ctrF_4580 WHEN mag(V(Vout_4580))=Vout_max_4580\n.meas AC Vout_ctrFb_4580  FROM 0 TARG mag(V(Vout_4580))=Vout_max_4580\n.meas Q_4580 param Vout_ctrFb_4580/Vout_bw_4580\n.meas dB_4580 param 20*log10(Vout_max_4580)\n \n.meas Vout_max_4556 max(mag(V(Vout_4556)))\n.meas AC Vout_cnrF1_4556  FROM 0 TARG mag(V(Vout_4556))=Vout_max_4556/sqrt(2) RISE=1\n.meas AC Vout_cnrF2_4556  FROM 0 TARG mag(V(Vout_4556))=Vout_max_4556/sqrt(2) FALL=1\n.meas AC Vout_bw_4556 TRIG mag(V(Vout_4556))=Vout_max_4556/sqrt(2) RISE=1\n+                              TARG mag(V(Vout_4556))=Vout_max_4556/sqrt(2) FALL=LAST\n.options meascplxfmt=CARTESIAN\n.meas AC Vout_ctrF_4556 WHEN mag(V(Vout_4556))=Vout_max_4556\n.meas AC Vout_ctrFb_4556  FROM 0 TARG mag(V(Vout_4556))=Vout_max_4556\n.meas Q_4556 param Vout_ctrFb_4556/Vout_bw_4556\n.meas dB_4556 param 20*log10(Vout_max_4556)
TEXT 976 -176 Left 1 ;R1=R2=1Meg\nvout_max: 19.7885\nvout_cnrf1: 154.7\nvout_cnrf2: 162.732\nvout_bw: 8.03165\nvout_ctrf: 158.782\nvout_ctrfb: 158.782\nvout_q: 19.77
TEXT 1504 -176 Left 1 ;R1=R2=6.8k\nvout_max: 49.7801\nvout_cnrf1: 19729.7\nvout_cnrf2: 20130\nvout_bw: 400.24\nvout_ctrf: 19934.3\nvout_ctrfb: 19934.3\nvout_q: 49.806
TEXT 1152 -176 Left 1 ;R1=R2=100k\nvout_max: 37.7198\nvout_cnrf1: 1549.17\nvout_cnrf2: 1590.81\nvout_bw: 41.645\nvout_ctrf: 1570.36\nvout_ctrfb: 1570.36\nvout_q: 37.708
TEXT 1328 -176 Left 1 ;R1=R2=10k\nvout_max: 46.577\nvout_cnrf1: 14036.2\nvout_cnrf2: 14340.9\nvout_bw: 304.623\nvout_ctrf: 14190.6\nvout_ctrfb: 14190.6\nvout_q: 46.584
TEXT 1112 152 Left 2 !.param Rset=1Meg
TEXT 976 -608 Left 1 ;R1=R2=1Meg\nvout_max: 14.8482\nvout_cnrf1: 153.378\nvout_cnrf2: 164.095\nvout_bw: 10.7173\nvout_ctrf: 158.855\nvout_ctrfb: 158.855\nvout_q: 14.822
TEXT 1504 -608 Left 1 ;R1=R2=6.8k\nvout_max: 51.0138\nvout_cnrf1: 21569\nvout_cnrf2: 21995.8\nvout_bw: 426.795\nvout_ctrf: 21787.1\nvout_ctrfb: 21787.1\nvout_q: 51.048
TEXT 1152 -608 Left 1 ;R1=R2=100k\nvout_max: 39.702\nvout_cnrf1: 1561.81\nvout_cnrf2: 1601.66\nvout_bw: 39.8572\nvout_ctrf: 1581.98\nvout_ctrfb: 1581.98\nvout_q: 39.691
TEXT 1328 -608 Left 1 ;R1=R2=10k\nvout_max: 49.6634\nvout_cnrf1: 14984.5\nvout_cnrf2: 15289.3\nvout_bw: 304.779\nvout_ctrf: 15135.6\nvout_ctrfb: 15135.6\nvout_q: 49.661
TEXT 2344 -192 Left 1 ;R1=R2=1Meg\nvout_max: 47.5887\nvout_cnrf1: 157.358\nvout_cnrf2: 160.702\nvout_bw: 3.34386\nvout_ctrf: 159.074\nvout_ctrfb: 159.074\nvout_q: 47.572
TEXT 2872 -192 Left 1 ;R1=R2=6.8k\nvout_max: 51.9658\nvout_cnrf1: 21305\nvout_cnrf2: 21719.1\nvout_bw: 414.146\nvout_ctrf: 21517.9\nvout_ctrfb: 21517.9\nvout_q: 51.957
TEXT 2520 -192 Left 1 ;R1=R2=100k\nvout_max: 48.0565\nvout_cnrf1: 1565.01\nvout_cnrf2: 1597.94\nvout_bw: 32.9281\nvout_ctrf: 1581.25\nvout_ctrfb: 1581.25\nvout_q: 48.021
TEXT 2696 -192 Left 1 ;R1=R2=10k\nvout_max: 50.67\nvout_cnrf1: 14857.2\nvout_cnrf2: 151.53.4\nvout_bw: 296.262\nvout_ctrf: 15003.8\nvout_ctrfb: 15003.8\nvout_q: 50.644
TEXT 2344 -624 Left 1 ;R1=R2=1Meg\nvout_max: 49.3083\nvout_cnrf1: 156.689\nvout_cnrf2: 159.901\nvout_bw: 3.21226\nvout_ctrf: 158.271\nvout_ctrfb: 158.271\nvout_q: 49.271
TEXT 2872 -624 Left 1 ;R1=R2=6.8k\nvout_max: 50.798\nvout_cnrf1: 22589.3\nvout_cnrf2: 23038.5\nvout_bw: 449.267\nvout_ctrf: 22813.9\nvout_ctrfb: 22813.9\nvout_q: 50.780
TEXT 2520 -624 Left 1 ;R1=R2=100k\nvout_max: 49.817\nvout_cnrf1: 1565.08\nvout_cnrf2: 1596.83\nvout_bw: 31.7513\nvout_ctrf: 1581.25\nvout_ctrfb: 1581.25\nvout_q: 49.801
TEXT 2696 -624 Left 1 ;R1=R2=10k\nvout_max: 50.4756\nvout_cnrf1: 15458.6\nvout_cnrf2: 15768.1\nvout_bw: 309.48\nvout_ctrf: 15617.1\nvout_ctrfb: 15617.1\nvout_q: 50.462
TEXT 1560 200 Left 1 !.meas Vout_max_2277 max(mag(V(Vout_2277)))\n.meas AC Vout_cnrF1_2277  FROM 0 TARG mag(V(Vout_2277))=Vout_max_2277/sqrt(2) RISE=1\n.meas AC Vout_cnrF2_2277  FROM 0 TARG mag(V(Vout_2277))=Vout_max_2277/sqrt(2) FALL=1\n.meas AC Vout_bw_2277 TRIG mag(V(Vout_2277))=Vout_max_2277/sqrt(2) RISE=1\n+                              TARG mag(V(Vout_2277))=Vout_max_2277/sqrt(2) FALL=LAST\n.options meascplxfmt=CARTESIAN\n.meas AC Vout_ctrF_2277 WHEN mag(V(Vout_2277))=Vout_max_2277\n.meas AC Vout_ctrFb_2277  FROM 0 TARG mag(V(Vout_2277))=Vout_max_2277\n.meas Q_2277 param Vout_ctrFb_2277/Vout_bw_2277\n.meas dB_2277 param 20*log10(Vout_max_2277)\n \n.meas Vout_max_4562 max(mag(V(Vout_4562)))\n.meas AC Vout_cnrF1_4562  FROM 0 TARG mag(V(Vout_4562))=Vout_max_4562/sqrt(2) RISE=1\n.meas AC Vout_cnrF2_4562  FROM 0 TARG mag(V(Vout_4562))=Vout_max_4562/sqrt(2) FALL=1\n.meas AC Vout_bw_4562 TRIG mag(V(Vout_4562))=Vout_max_4562/sqrt(2) RISE=1\n+                              TARG mag(V(Vout_4562))=Vout_max_4562/sqrt(2) FALL=LAST\n.options meascplxfmt=CARTESIAN\n.meas AC Vout_ctrF_4562 WHEN mag(V(Vout_4562))=Vout_max_4562\n.meas AC Vout_ctrFb_4562  FROM 0 TARG mag(V(Vout_4562))=Vout_max_4562\n.meas Q_4562 param Vout_ctrFb_4562/Vout_bw_4562\n.meas dB_4562 param 20*log10(Vout_max_4562)\n \n.meas Vout_max_833 max(mag(V(Vout_833)))\n.meas AC Vout_cnrF1_833  FROM 0 TARG mag(V(Vout_833))=Vout_max_833/sqrt(2) RISE=1\n.meas AC Vout_cnrF2_833  FROM 0 TARG mag(V(Vout_833))=Vout_max_833/sqrt(2) FALL=1\n.meas AC Vout_bw_833 TRIG mag(V(Vout_833))=Vout_max_833/sqrt(2) RISE=1\n+                              TARG mag(V(Vout_833))=Vout_max_833/sqrt(2) FALL=LAST\n.options meascplxfmt=CARTESIAN\n.meas AC Vout_ctrF_833 WHEN mag(V(Vout_833))=Vout_max_833\n.meas AC Vout_ctrFb_833  FROM 0 TARG mag(V(Vout_833))=Vout_max_833\n.meas Q_833 param Vout_ctrFb_833/Vout_bw_833\n.meas dB_833 param 20*log10(Vout_max_833)
